
Determining smart-gap threshold...

-------------
| Arguments |
-------------
Input file: results/alignment/threaded_cds/OG0000001.cds.alignment.fa (format: fasta)
Output file: results/alignment/trimmed_cds/OG0000001.trimmed.cds.alignment.fa (format: fasta)
Gaps threshold: 0.8
Trimming mode: smart-gap
Create complementary output: False
Create log file: False


------------------------
| Processing Alignment |
------------------------

  0%|          | 0/339 [00:00<?, ?it/s]100%|██████████| 339/339 [00:00<00:00, 73024.96it/s]


------------------------
| Writing output files |
------------------------
trimmed alignment: results/alignment/trimmed_cds/OG0000001.trimmed.cds.alignment.fa
complement file: False
log file: False


---------------------
| Output Statistics |
---------------------
Number of sites kept: 327
Number of sites trimmed: 12

Percentage of alignment trimmed: 3.54%

Execution time: 0.035s

