
Determining smart-gap threshold...

-------------
| Arguments |
-------------
Input file: results/alignment/threaded_cds/OG0000002.cds.alignment.fa (format: fasta)
Output file: results/alignment/trimmed_cds/OG0000002.trimmed.cds.alignment.fa (format: fasta)
Sequence type: Nucleotides
Gaps threshold: 0.8
Trimming mode: smart-gap
Create complementary output: False
Create log file: False


------------------------
| Processing Alignment |
------------------------

  0%|          | 0/993 [00:00<?, ?it/s]100%|██████████| 993/993 [00:00<00:00, 65953.19it/s]


------------------------
| Writing output files |
------------------------
trimmed alignment: results/alignment/trimmed_cds/OG0000002.trimmed.cds.alignment.fa
complement file: False
log file: False


---------------------
| Output Statistics |
---------------------
Number of sites kept: 960
Number of sites trimmed: 33

Percentage of alignment trimmed: 3.323%

Execution time: 0.055s

