
Determining smart-gap threshold...

-------------
| Arguments |
-------------
Input file: results/alignment/taxon_only/OG0000002.taxon_only.protein.alignment.fa (format: fasta)
Output file: results/alignment/trimmed_protein/OG0000002.trimmed.protein.alignment.fa (format: fasta)
Gaps threshold: 0.8
Trimming mode: smart-gap
Create complementary output: False
Create log file: False


------------------------
| Processing Alignment |
------------------------

  0%|          | 0/331 [00:00<?, ?it/s]100%|██████████| 331/331 [00:00<00:00, 42693.73it/s]


------------------------
| Writing output files |
------------------------
trimmed alignment: results/alignment/trimmed_protein/OG0000002.trimmed.protein.alignment.fa
complement file: False
log file: False


---------------------
| Output Statistics |
---------------------
Number of sites kept: 320
Number of sites trimmed: 11

Percentage of alignment trimmed: 3.323%

Execution time: 0.067s

