
Determining smart-gap threshold...

-------------
| Arguments |
-------------
Input file: results/alignment/threaded_cds/OG0000004.cds.alignment.fa (format: fasta)
Output file: results/alignment/trimmed_cds/OG0000004.trimmed.cds.alignment.fa (format: fasta)
Sequence type: Nucleotides
Gaps threshold: 1
Trimming mode: smart-gap
Create complementary output: False
Create log file: False


------------------------
| Processing Alignment |
------------------------

  0%|          | 0/108 [00:00<?, ?it/s]100%|██████████| 108/108 [00:00<00:00, 57727.14it/s]


------------------------
| Writing output files |
------------------------
trimmed alignment: results/alignment/trimmed_cds/OG0000004.trimmed.cds.alignment.fa
complement file: False
log file: False


---------------------
| Output Statistics |
---------------------
Number of sites kept: 108
Number of sites trimmed: 0

Percentage of alignment trimmed: 0.0%

Execution time: 0.021s

