
Determining smart-gap threshold...

-------------
| Arguments |
-------------
Input file: results/alignment/taxon_only/OG0000005.taxon_only.protein.alignment.fa (format: fasta)
Output file: results/alignment/trimmed_protein/OG0000005.trimmed.protein.alignment.fa (format: fasta)
Sequence type: Protein
Gaps threshold: 1
Trimming mode: smart-gap
Create complementary output: False
Create log file: False


------------------------
| Processing Alignment |
------------------------

  0%|          | 0/475 [00:00<?, ?it/s]100%|██████████| 475/475 [00:00<00:00, 50094.15it/s]


------------------------
| Writing output files |
------------------------
trimmed alignment: results/alignment/trimmed_protein/OG0000005.trimmed.protein.alignment.fa
complement file: False
log file: False


---------------------
| Output Statistics |
---------------------
Number of sites kept: 475
Number of sites trimmed: 0

Percentage of alignment trimmed: 0.0%

Execution time: 0.047s

