
Determining smart-gap threshold...

-------------
| Arguments |
-------------
Input file: results/alignment/threaded_cds/OG0000003.cds.alignment.fa (format: fasta)
Output file: results/alignment/trimmed_cds/OG0000003.trimmed.cds.alignment.fa (format: fasta)
Gaps threshold: 0.8
Trimming mode: smart-gap
Create complementary output: False
Create log file: False


------------------------
| Processing Alignment |
------------------------

  0%|          | 0/114 [00:00<?, ?it/s]100%|██████████| 114/114 [00:00<00:00, 85797.71it/s]


------------------------
| Writing output files |
------------------------
trimmed alignment: results/alignment/trimmed_cds/OG0000003.trimmed.cds.alignment.fa
complement file: False
log file: False


---------------------
| Output Statistics |
---------------------
Number of sites kept: 108
Number of sites trimmed: 6

Percentage of alignment trimmed: 5.263%

Execution time: 0.021s

