
Determining smart-gap threshold...

-------------
| Arguments |
-------------
Input file: results/alignment/taxon_only/OG0000000_orthosnap_0.taxon_only.protein.alignment.fa (format: fasta)
Output file: results/alignment/trimmed_protein/OG0000000_orthosnap_0.trimmed.protein.alignment.fa (format: fasta)
Sequence type: Protein
Gaps threshold: 0.8
Trimming mode: smart-gap
Create complementary output: False
Create log file: False


------------------------
| Processing Alignment |
------------------------

  0%|          | 0/83 [00:00<?, ?it/s]100%|██████████| 83/83 [00:00<00:00, 58166.62it/s]


------------------------
| Writing output files |
------------------------
trimmed alignment: results/alignment/trimmed_protein/OG0000000_orthosnap_0.trimmed.protein.alignment.fa
complement file: False
log file: False


---------------------
| Output Statistics |
---------------------
Number of sites kept: 82
Number of sites trimmed: 1

Percentage of alignment trimmed: 1.205%

Execution time: 0.02s

