
Determining smart-gap threshold...

-------------
| Arguments |
-------------
Input file: results/alignment/taxon_only/OG0000003.taxon_only.protein.alignment.fa (format: fasta)
Output file: results/alignment/trimmed_protein/OG0000003.trimmed.protein.alignment.fa (format: fasta)
Sequence type: Protein
Gaps threshold: 0.8
Trimming mode: smart-gap
Create complementary output: False
Create log file: False


------------------------
| Processing Alignment |
------------------------

  0%|          | 0/38 [00:00<?, ?it/s]100%|██████████| 38/38 [00:00<00:00, 48845.71it/s]


------------------------
| Writing output files |
------------------------
trimmed alignment: results/alignment/trimmed_protein/OG0000003.trimmed.protein.alignment.fa
complement file: False
log file: False


---------------------
| Output Statistics |
---------------------
Number of sites kept: 36
Number of sites trimmed: 2

Percentage of alignment trimmed: 5.263%

Execution time: 0.019s

